2756
  -OEChem-07092510392D

 33 33  0     0  0  0  0  0  0999 V2000
    3.5665   -1.0999    0.0000 S   0  0  0  0  0  0  0  0  0  0  0  0
    4.2475   -4.3613    0.0000 N   0  0  0  0  0  0  0  0  0  0  0  0
    2.7977    1.4317    0.0000 N   0  0  0  0  0  0  0  0  0  0  0  0
    4.7475   -2.8225    0.0000 N   0  0  0  0  0  0  0  0  0  0  0  0
    2.6166    3.1542    0.0000 N   0  0  0  0  0  0  0  0  0  0  0  0
    4.1989    2.4497    0.0000 N   0  0  0  0  0  0  0  0  0  0  0  0
    3.4301    4.9813    0.0000 N   0  0  0  0  0  0  0  0  0  0  0  0
    3.7475   -2.8225    0.0000 C   0  0  0  0  0  0  0  0  0  0  0  0
    3.1598   -2.0135    0.0000 C   0  0  0  0  0  0  0  0  0  0  0  0
    2.9787   -0.2909    0.0000 C   0  0  0  0  0  0  0  0  0  0  0  0
    3.3854    0.6226    0.0000 C   0  0  0  0  0  0  0  0  0  0  0  0
    3.4385   -3.7735    0.0000 C   0  0  0  0  0  0  0  0  0  0  0  0
    2.4875   -4.0826    0.0000 C   0  0  0  0  0  0  0  0  0  0  0  0
    5.0566   -3.7735    0.0000 C   0  0  0  0  0  0  0  0  0  0  0  0
    3.2044    2.3452    0.0000 C   0  0  0  0  0  0  0  0  0  0  0  0
    4.6057    3.3633    0.0000 C   0  0  0  0  0  0  0  0  0  0  0  0
    3.0233    4.0678    0.0000 C   0  0  0  0  0  0  0  0  0  0  0  0
    2.6458   -1.6668    0.0000 H   0  0  0  0  0  0  0  0  0  0  0  0
    2.7291   -2.4595    0.0000 H   0  0  0  0  0  0  0  0  0  0  0  0
    2.4647    0.0558    0.0000 H   0  0  0  0  0  0  0  0  0  0  0  0
    2.5480   -0.7369    0.0000 H   0  0  0  0  0  0  0  0  0  0  0  0
    3.8994    0.2759    0.0000 H   0  0  0  0  0  0  0  0  0  0  0  0
    3.8161    1.0686    0.0000 H   0  0  0  0  0  0  0  0  0  0  0  0
    4.2475   -4.9813    0.0000 H   0  0  0  0  0  0  0  0  0  0  0  0
    2.1811    1.3669    0.0000 H   0  0  0  0  0  0  0  0  0  0  0  0
    2.2959   -3.4929    0.0000 H   0  0  0  0  0  0  0  0  0  0  0  0
    1.8978   -4.2741    0.0000 H   0  0  0  0  0  0  0  0  0  0  0  0
    2.6791   -4.6722    0.0000 H   0  0  0  0  0  0  0  0  0  0  0  0
    5.6462   -3.9651    0.0000 H   0  0  0  0  0  0  0  0  0  0  0  0
    2.0000    3.0894    0.0000 H   0  0  0  0  0  0  0  0  0  0  0  0
    5.1721    3.1111    0.0000 H   0  0  0  0  0  0  0  0  0  0  0  0
    4.8578    3.9297    0.0000 H   0  0  0  0  0  0  0  0  0  0  0  0
    4.0393    3.6155    0.0000 H   0  0  0  0  0  0  0  0  0  0  0  0
  1  9  1  0  0  0  0
  1 10  1  0  0  0  0
  2 12  1  0  0  0  0
  2 14  1  0  0  0  0
  2 24  1  0  0  0  0
  3 11  1  0  0  0  0
  3 15  1  0  0  0  0
  3 25  1  0  0  0  0
  4  8  1  0  0  0  0
  4 14  2  0  0  0  0
  5 15  1  0  0  0  0
  5 17  1  0  0  0  0
  5 30  1  0  0  0  0
  6 15  2  0  0  0  0
  6 16  1  0  0  0  0
  7 17  3  0  0  0  0
  8  9  1  0  0  0  0
  8 12  2  0  0  0  0
  9 18  1  0  0  0  0
  9 19  1  0  0  0  0
 10 11  1  0  0  0  0
 10 20  1  0  0  0  0
 10 21  1  0  0  0  0
 11 22  1  0  0  0  0
 11 23  1  0  0  0  0
 12 13  1  0  0  0  0
 13 26  1  0  0  0  0
 13 27  1  0  0  0  0
 13 28  1  0  0  0  0
 14 29  1  0  0  0  0
 16 31  1  0  0  0  0
 16 32  1  0  0  0  0
 16 33  1  0  0  0  0
M  END
> <PUBCHEM_COMPOUND_CID>
2756

> <PUBCHEM_COMPOUND_CANONICALIZED>
1

> <PUBCHEM_CACTVS_COMPLEXITY>
296

> <PUBCHEM_CACTVS_HBOND_ACCEPTOR>
4

> <PUBCHEM_CACTVS_HBOND_DONOR>
3

> <PUBCHEM_CACTVS_ROTATABLE_BOND>
7

> <PUBCHEM_CACTVS_SUBSKEYS>
AAADceBzgABAAAAAAAAAAAAAAAAAAWAAAAAAAAAAAAAAAAABgAAAHAQQAAAACAjFVgSHkBbJkAiwAQRhZAAAgC2RELABWYA4UACASABgCAAUAAAIEAJgACAAAAAAAAAAAAAAAAAAAAAAAAAAAAAAAAAAAA==

> <PUBCHEM_IUPAC_OPENEYE_NAME>
1-cyano-2-methyl-3-[2-[(5-methyl-1H-imidazol-4-yl)methylsulfanyl]ethyl]guanidine

> <PUBCHEM_IUPAC_CAS_NAME>
1-cyano-2-methyl-3-[2-[(5-methyl-1H-imidazol-4-yl)methylthio]ethyl]guanidine

> <PUBCHEM_IUPAC_NAME_MARKUP>
1-cyano-2-methyl-3-[2-[(5-methyl-1<I>H</I>-imidazol-4-yl)methylsulfanyl]ethyl]guanidine

> <PUBCHEM_IUPAC_NAME>
1-cyano-2-methyl-3-[2-[(5-methyl-1H-imidazol-4-yl)methylsulfanyl]ethyl]guanidine

> <PUBCHEM_IUPAC_SYSTEMATIC_NAME>
1-cyano-2-methyl-3-[2-[(5-methyl-1H-imidazol-4-yl)methylsulfanyl]ethyl]guanidine

> <PUBCHEM_IUPAC_TRADITIONAL_NAME>
1-cyano-2-methyl-3-[2-[(5-methyl-1H-imidazol-4-yl)methylthio]ethyl]guanidine

> <PUBCHEM_IUPAC_INCHI>
InChI=1S/C10H16N6S/c1-8-9(16-7-15-8)5-17-4-3-13-10(12-2)14-6-11/h7H,3-5H2,1-2H3,(H,15,16)(H2,12,13,14)

> <PUBCHEM_IUPAC_INCHIKEY>
AQIXAKUUQRKLND-UHFFFAOYSA-N

> <PUBCHEM_XLOGP3>
0.4

> <PUBCHEM_EXACT_MASS>
252.11571571

> <PUBCHEM_MOLECULAR_FORMULA>
C10H16N6S

> <PUBCHEM_MOLECULAR_WEIGHT>
252.34

> <PUBCHEM_SMILES>
CC1=C(N=CN1)CSCCNC(=NC)NC#N

> <PUBCHEM_CONNECTIVITY_SMILES>
CC1=C(N=CN1)CSCCNC(=NC)NC#N

> <PUBCHEM_CACTVS_TPSA>
114

> <PUBCHEM_MONOISOTOPIC_WEIGHT>
252.11571571

> <PUBCHEM_TOTAL_CHARGE>
0

> <PUBCHEM_HEAVY_ATOM_COUNT>
17

> <PUBCHEM_ATOM_DEF_STEREO_COUNT>
0

> <PUBCHEM_ATOM_UDEF_STEREO_COUNT>
0

> <PUBCHEM_BOND_DEF_STEREO_COUNT>
0

> <PUBCHEM_BOND_UDEF_STEREO_COUNT>
0

> <PUBCHEM_ISOTOPIC_ATOM_COUNT>
0

> <PUBCHEM_COMPONENT_COUNT>
1

> <PUBCHEM_CACTVS_TAUTO_COUNT>
-1

> <PUBCHEM_COORDINATE_TYPE>
1
5
255

> <PUBCHEM_BONDANNOTATIONS>
2  12  8
2  14  8
4  14  8
4  8  8
8  12  8

$$$$
